<?xml version="1.0" encoding="UTF-8"?>

<!-- generated on 2021-10-18 17:44:09 by Eclipse SUMO netedit Version v1_10_0+1504-44bb015
<configuration xmlns:xsi="http://www.w3.org/2001/XMLSchema-instance" xsi:noNamespaceSchemaLocation="http://sumo.dlr.de/xsd/netconvertConfiguration.xsd">

    <input>
        <sumo-net-file value="net.net.xml"/>
    </input>

    <output>
        <output-file value="/localdata2/debug/9278/net2.net.xml"/>
    </output>

    <processing>
        <geometry.min-radius.fix.railways value="false"/>
        <geometry.max-grade.fix value="false"/>
        <offset.disable-normalization value="true"/>
        <lefthand value="false"/>
    </processing>

    <junctions>
        <no-internal-links value="true"/>
        <no-turnarounds value="true"/>
        <junctions.corner-detail value="5"/>
        <junctions.limit-turn-speed value="5.5"/>
        <rectangular-lane-cut value="false"/>
    </junctions>

    <pedestrian>
        <walkingareas value="false"/>
    </pedestrian>

    <report>
        <aggregate-warnings value="5"/>
    </report>

</configuration>
-->

<net version="1.9" junctionCornerDetail="5" limitTurnSpeed="5.50" xmlns:xsi="http://www.w3.org/2001/XMLSchema-instance" xsi:noNamespaceSchemaLocation="http://sumo.dlr.de/xsd/net_file.xsd">

    <location netOffset="0.00,0.00" convBoundary="0.00,500.00,8500.00,8000.00" origBoundary="0.00,0.00,8500.00,8500.00" projParameter="!"/>

    <edge id="A0B0" from="A0" to="B0" priority="-1">
        <lane id="A0B0_0" index="0" speed="13.89" length="500.00" shape="500.00,498.40 1000.00,498.40"/>
    </edge>
    <edge id="A10B10" from="A10" to="B10" priority="-1">
        <lane id="A10B10_0" index="0" speed="13.89" length="500.00" shape="500.00,5498.40 1000.00,5498.40"/>
    </edge>
    <edge id="A11B11" from="A11" to="B11" priority="-1">
        <lane id="A11B11_0" index="0" speed="13.89" length="500.00" shape="500.00,5998.40 1000.00,5998.40"/>
    </edge>
    <edge id="A12B12" from="A12" to="B12" priority="-1">
        <lane id="A12B12_0" index="0" speed="13.89" length="500.00" shape="500.00,6498.40 1000.00,6498.40"/>
    </edge>
    <edge id="A13B13" from="A13" to="B13" priority="-1">
        <lane id="A13B13_0" index="0" speed="13.89" length="500.00" shape="500.00,6998.40 1000.00,6998.40"/>
    </edge>
    <edge id="A14B14" from="A14" to="B14" priority="-1">
        <lane id="A14B14_0" index="0" speed="13.89" length="500.00" shape="500.00,7498.40 1000.00,7498.40"/>
    </edge>
    <edge id="A15B15" from="A15" to="B15" priority="-1">
        <lane id="A15B15_0" index="0" speed="13.89" length="500.00" shape="500.00,7998.40 1000.00,7998.40"/>
    </edge>
    <edge id="A1B1" from="A1" to="B1" priority="-1">
        <lane id="A1B1_0" index="0" speed="13.89" length="500.00" shape="500.00,998.40 1000.00,998.40"/>
    </edge>
    <edge id="A2B2" from="A2" to="B2" priority="-1">
        <lane id="A2B2_0" index="0" speed="13.89" length="500.00" shape="500.00,1498.40 1000.00,1498.40"/>
    </edge>
    <edge id="A3B3" from="A3" to="B3" priority="-1">
        <lane id="A3B3_0" index="0" speed="13.89" length="500.00" shape="500.00,1998.40 1000.00,1998.40"/>
    </edge>
    <edge id="A4B4" from="A4" to="B4" priority="-1">
        <lane id="A4B4_0" index="0" speed="13.89" length="500.00" shape="500.00,2498.40 1000.00,2498.40"/>
    </edge>
    <edge id="A5B5" from="A5" to="B5" priority="-1">
        <lane id="A5B5_0" index="0" speed="13.89" length="500.00" shape="500.00,2998.40 1000.00,2998.40"/>
    </edge>
    <edge id="A6B6" from="A6" to="B6" priority="-1">
        <lane id="A6B6_0" index="0" speed="13.89" length="500.00" shape="500.00,3498.40 1000.00,3498.40"/>
    </edge>
    <edge id="A7B7" from="A7" to="B7" priority="-1">
        <lane id="A7B7_0" index="0" speed="13.89" length="500.00" shape="500.00,3998.40 1000.00,3998.40"/>
    </edge>
    <edge id="A8B8" from="A8" to="B8" priority="-1">
        <lane id="A8B8_0" index="0" speed="13.89" length="500.00" shape="500.00,4498.40 1000.00,4498.40"/>
    </edge>
    <edge id="A9B9" from="A9" to="B9" priority="-1">
        <lane id="A9B9_0" index="0" speed="13.89" length="500.00" shape="500.00,4998.40 1000.00,4998.40"/>
    </edge>
    <edge id="B0C0" from="B0" to="C0" priority="-1">
        <lane id="B0C0_0" index="0" speed="13.89" length="500.00" shape="1000.00,498.40 1500.00,498.40"/>
    </edge>
    <edge id="B10C10" from="B10" to="C10" priority="-1">
        <lane id="B10C10_0" index="0" speed="13.89" length="500.00" shape="1000.00,5498.40 1500.00,5498.40"/>
    </edge>
    <edge id="B11C11" from="B11" to="C11" priority="-1">
        <lane id="B11C11_0" index="0" speed="13.89" length="500.00" shape="1000.00,5998.40 1500.00,5998.40"/>
    </edge>
    <edge id="B12C12" from="B12" to="C12" priority="-1">
        <lane id="B12C12_0" index="0" speed="13.89" length="500.00" shape="1000.00,6498.40 1500.00,6498.40"/>
    </edge>
    <edge id="B13C13" from="B13" to="C13" priority="-1">
        <lane id="B13C13_0" index="0" speed="13.89" length="500.00" shape="1000.00,6998.40 1500.00,6998.40"/>
    </edge>
    <edge id="B14C14" from="B14" to="C14" priority="-1">
        <lane id="B14C14_0" index="0" speed="13.89" length="500.00" shape="1000.00,7498.40 1500.00,7498.40"/>
    </edge>
    <edge id="B15C15" from="B15" to="C15" priority="-1">
        <lane id="B15C15_0" index="0" speed="13.89" length="500.00" shape="1000.00,7998.40 1500.00,7998.40"/>
    </edge>
    <edge id="B1C1" from="B1" to="C1" priority="-1">
        <lane id="B1C1_0" index="0" speed="13.89" length="500.00" shape="1000.00,998.40 1500.00,998.40"/>
    </edge>
    <edge id="B2C2" from="B2" to="C2" priority="-1">
        <lane id="B2C2_0" index="0" speed="13.89" length="500.00" shape="1000.00,1498.40 1500.00,1498.40"/>
    </edge>
    <edge id="B3C3" from="B3" to="C3" priority="-1">
        <lane id="B3C3_0" index="0" speed="13.89" length="500.00" shape="1000.00,1998.40 1500.00,1998.40"/>
    </edge>
    <edge id="B4C4" from="B4" to="C4" priority="-1">
        <lane id="B4C4_0" index="0" speed="13.89" length="500.00" shape="1000.00,2498.40 1500.00,2498.40"/>
    </edge>
    <edge id="B5C5" from="B5" to="C5" priority="-1">
        <lane id="B5C5_0" index="0" speed="13.89" length="500.00" shape="1000.00,2998.40 1500.00,2998.40"/>
    </edge>
    <edge id="B6C6" from="B6" to="C6" priority="-1">
        <lane id="B6C6_0" index="0" speed="13.89" length="500.00" shape="1000.00,3498.40 1500.00,3498.40"/>
    </edge>
    <edge id="B7C7" from="B7" to="C7" priority="-1">
        <lane id="B7C7_0" index="0" speed="13.89" length="500.00" shape="1000.00,3998.40 1500.00,3998.40"/>
    </edge>
    <edge id="B8C8" from="B8" to="C8" priority="-1">
        <lane id="B8C8_0" index="0" speed="13.89" length="500.00" shape="1000.00,4498.40 1500.00,4498.40"/>
    </edge>
    <edge id="B9C9" from="B9" to="C9" priority="-1">
        <lane id="B9C9_0" index="0" speed="13.89" length="500.00" shape="1000.00,4998.40 1500.00,4998.40"/>
    </edge>
    <edge id="C0D0" from="C0" to="D0" priority="-1">
        <lane id="C0D0_0" index="0" speed="13.89" length="500.00" shape="1500.00,498.40 2000.00,498.40"/>
    </edge>
    <edge id="C10D10" from="C10" to="D10" priority="-1">
        <lane id="C10D10_0" index="0" speed="13.89" length="500.00" shape="1500.00,5498.40 2000.00,5498.40"/>
    </edge>
    <edge id="C11D11" from="C11" to="D11" priority="-1">
        <lane id="C11D11_0" index="0" speed="13.89" length="500.00" shape="1500.00,5998.40 2000.00,5998.40"/>
    </edge>
    <edge id="C12D12" from="C12" to="D12" priority="-1">
        <lane id="C12D12_0" index="0" speed="13.89" length="500.00" shape="1500.00,6498.40 2000.00,6498.40"/>
    </edge>
    <edge id="C13D13" from="C13" to="D13" priority="-1">
        <lane id="C13D13_0" index="0" speed="13.89" length="500.00" shape="1500.00,6998.40 2000.00,6998.40"/>
    </edge>
    <edge id="C14D14" from="C14" to="D14" priority="-1">
        <lane id="C14D14_0" index="0" speed="13.89" length="500.00" shape="1500.00,7498.40 2000.00,7498.40"/>
    </edge>
    <edge id="C15D15" from="C15" to="D15" priority="-1">
        <lane id="C15D15_0" index="0" speed="13.89" length="500.00" shape="1500.00,7998.40 2000.00,7998.40"/>
    </edge>
    <edge id="C1D1" from="C1" to="D1" priority="-1">
        <lane id="C1D1_0" index="0" speed="13.89" length="500.00" shape="1500.00,998.40 2000.00,998.40"/>
    </edge>
    <edge id="C2D2" from="C2" to="D2" priority="-1">
        <lane id="C2D2_0" index="0" speed="13.89" length="500.00" shape="1500.00,1498.40 2000.00,1498.40"/>
    </edge>
    <edge id="C3D3" from="C3" to="D3" priority="-1">
        <lane id="C3D3_0" index="0" speed="13.89" length="500.00" shape="1500.00,1998.40 2000.00,1998.40"/>
    </edge>
    <edge id="C4D4" from="C4" to="D4" priority="-1">
        <lane id="C4D4_0" index="0" speed="13.89" length="500.00" shape="1500.00,2498.40 2000.00,2498.40"/>
    </edge>
    <edge id="C5D5" from="C5" to="D5" priority="-1">
        <lane id="C5D5_0" index="0" speed="13.89" length="500.00" shape="1500.00,2998.40 2000.00,2998.40"/>
    </edge>
    <edge id="C6D6" from="C6" to="D6" priority="-1">
        <lane id="C6D6_0" index="0" speed="13.89" length="500.00" shape="1500.00,3498.40 2000.00,3498.40"/>
    </edge>
    <edge id="C7D7" from="C7" to="D7" priority="-1">
        <lane id="C7D7_0" index="0" speed="13.89" length="500.00" shape="1500.00,3998.40 2000.00,3998.40"/>
    </edge>
    <edge id="C8D8" from="C8" to="D8" priority="-1">
        <lane id="C8D8_0" index="0" speed="13.89" length="500.00" shape="1500.00,4498.40 2000.00,4498.40"/>
    </edge>
    <edge id="C9D9" from="C9" to="D9" priority="-1">
        <lane id="C9D9_0" index="0" speed="13.89" length="500.00" shape="1500.00,4998.40 2000.00,4998.40"/>
    </edge>
    <edge id="D0E0" from="D0" to="E0" priority="-1">
        <lane id="D0E0_0" index="0" speed="13.89" length="500.00" shape="2000.00,498.40 2500.00,498.40"/>
    </edge>
    <edge id="D10E10" from="D10" to="E10" priority="-1">
        <lane id="D10E10_0" index="0" speed="13.89" length="500.00" shape="2000.00,5498.40 2500.00,5498.40"/>
    </edge>
    <edge id="D11E11" from="D11" to="E11" priority="-1">
        <lane id="D11E11_0" index="0" speed="13.89" length="500.00" shape="2000.00,5998.40 2500.00,5998.40"/>
    </edge>
    <edge id="D12E12" from="D12" to="E12" priority="-1">
        <lane id="D12E12_0" index="0" speed="13.89" length="500.00" shape="2000.00,6498.40 2500.00,6498.40"/>
    </edge>
    <edge id="D13E13" from="D13" to="E13" priority="-1">
        <lane id="D13E13_0" index="0" speed="13.89" length="500.00" shape="2000.00,6998.40 2500.00,6998.40"/>
    </edge>
    <edge id="D14E14" from="D14" to="E14" priority="-1">
        <lane id="D14E14_0" index="0" speed="13.89" length="500.00" shape="2000.00,7498.40 2500.00,7498.40"/>
    </edge>
    <edge id="D15E15" from="D15" to="E15" priority="-1">
        <lane id="D15E15_0" index="0" speed="13.89" length="500.00" shape="2000.00,7998.40 2500.00,7998.40"/>
    </edge>
    <edge id="D1E1" from="D1" to="E1" priority="-1">
        <lane id="D1E1_0" index="0" speed="13.89" length="500.00" shape="2000.00,998.40 2500.00,998.40"/>
    </edge>
    <edge id="D2E2" from="D2" to="E2" priority="-1">
        <lane id="D2E2_0" index="0" speed="13.89" length="500.00" shape="2000.00,1498.40 2500.00,1498.40"/>
    </edge>
    <edge id="D3E3" from="D3" to="E3" priority="-1">
        <lane id="D3E3_0" index="0" speed="13.89" length="500.00" shape="2000.00,1998.40 2500.00,1998.40"/>
    </edge>
    <edge id="D4E4" from="D4" to="E4" priority="-1">
        <lane id="D4E4_0" index="0" speed="13.89" length="500.00" shape="2000.00,2498.40 2500.00,2498.40"/>
    </edge>
    <edge id="D5E5" from="D5" to="E5" priority="-1">
        <lane id="D5E5_0" index="0" speed="13.89" length="500.00" shape="2000.00,2998.40 2500.00,2998.40"/>
    </edge>
    <edge id="D6E6" from="D6" to="E6" priority="-1">
        <lane id="D6E6_0" index="0" speed="13.89" length="500.00" shape="2000.00,3498.40 2500.00,3498.40"/>
    </edge>
    <edge id="D7E7" from="D7" to="E7" priority="-1">
        <lane id="D7E7_0" index="0" speed="13.89" length="500.00" shape="2000.00,3998.40 2500.00,3998.40"/>
    </edge>
    <edge id="D8E8" from="D8" to="E8" priority="-1">
        <lane id="D8E8_0" index="0" speed="13.89" length="500.00" shape="2000.00,4498.40 2500.00,4498.40"/>
    </edge>
    <edge id="D9E9" from="D9" to="E9" priority="-1">
        <lane id="D9E9_0" index="0" speed="13.89" length="500.00" shape="2000.00,4998.40 2500.00,4998.40"/>
    </edge>
    <edge id="E0F0" from="E0" to="F0" priority="-1">
        <lane id="E0F0_0" index="0" speed="13.89" length="500.00" shape="2500.00,498.40 3000.00,498.40"/>
    </edge>
    <edge id="E10F10" from="E10" to="F10" priority="-1">
        <lane id="E10F10_0" index="0" speed="13.89" length="500.00" shape="2500.00,5498.40 3000.00,5498.40"/>
    </edge>
    <edge id="E11F11" from="E11" to="F11" priority="-1">
        <lane id="E11F11_0" index="0" speed="13.89" length="500.00" shape="2500.00,5998.40 3000.00,5998.40"/>
    </edge>
    <edge id="E12F12" from="E12" to="F12" priority="-1">
        <lane id="E12F12_0" index="0" speed="13.89" length="500.00" shape="2500.00,6498.40 3000.00,6498.40"/>
    </edge>
    <edge id="E13F13" from="E13" to="F13" priority="-1">
        <lane id="E13F13_0" index="0" speed="13.89" length="500.00" shape="2500.00,6998.40 3000.00,6998.40"/>
    </edge>
    <edge id="E14F14" from="E14" to="F14" priority="-1">
        <lane id="E14F14_0" index="0" speed="13.89" length="500.00" shape="2500.00,7498.40 3000.00,7498.40"/>
    </edge>
    <edge id="E15F15" from="E15" to="F15" priority="-1">
        <lane id="E15F15_0" index="0" speed="13.89" length="500.00" shape="2500.00,7998.40 3000.00,7998.40"/>
    </edge>
    <edge id="E1F1" from="E1" to="F1" priority="-1">
        <lane id="E1F1_0" index="0" speed="13.89" length="500.00" shape="2500.00,998.40 3000.00,998.40"/>
    </edge>
    <edge id="E2F2" from="E2" to="F2" priority="-1">
        <lane id="E2F2_0" index="0" speed="13.89" length="500.00" shape="2500.00,1498.40 3000.00,1498.40"/>
    </edge>
    <edge id="E3F3" from="E3" to="F3" priority="-1">
        <lane id="E3F3_0" index="0" speed="13.89" length="500.00" shape="2500.00,1998.40 3000.00,1998.40"/>
    </edge>
    <edge id="E4F4" from="E4" to="F4" priority="-1">
        <lane id="E4F4_0" index="0" speed="13.89" length="500.00" shape="2500.00,2498.40 3000.00,2498.40"/>
    </edge>
    <edge id="E5F5" from="E5" to="F5" priority="-1">
        <lane id="E5F5_0" index="0" speed="13.89" length="500.00" shape="2500.00,2998.40 3000.00,2998.40"/>
    </edge>
    <edge id="E6F6" from="E6" to="F6" priority="-1">
        <lane id="E6F6_0" index="0" speed="13.89" length="500.00" shape="2500.00,3498.40 3000.00,3498.40"/>
    </edge>
    <edge id="E7F7" from="E7" to="F7" priority="-1">
        <lane id="E7F7_0" index="0" speed="13.89" length="500.00" shape="2500.00,3998.40 3000.00,3998.40"/>
    </edge>
    <edge id="E8F8" from="E8" to="F8" priority="-1">
        <lane id="E8F8_0" index="0" speed="13.89" length="500.00" shape="2500.00,4498.40 3000.00,4498.40"/>
    </edge>
    <edge id="E9F9" from="E9" to="F9" priority="-1">
        <lane id="E9F9_0" index="0" speed="13.89" length="500.00" shape="2500.00,4998.40 3000.00,4998.40"/>
    </edge>
    <edge id="F0G0" from="F0" to="G0" priority="-1">
        <lane id="F0G0_0" index="0" speed="13.89" length="500.00" shape="3000.00,498.40 3500.00,498.40"/>
    </edge>
    <edge id="F10G10" from="F10" to="G10" priority="-1">
        <lane id="F10G10_0" index="0" speed="13.89" length="500.00" shape="3000.00,5498.40 3500.00,5498.40"/>
    </edge>
    <edge id="F11G11" from="F11" to="G11" priority="-1">
        <lane id="F11G11_0" index="0" speed="13.89" length="500.00" shape="3000.00,5998.40 3500.00,5998.40"/>
    </edge>
    <edge id="F12G12" from="F12" to="G12" priority="-1">
        <lane id="F12G12_0" index="0" speed="13.89" length="500.00" shape="3000.00,6498.40 3500.00,6498.40"/>
    </edge>
    <edge id="F13G13" from="F13" to="G13" priority="-1">
        <lane id="F13G13_0" index="0" speed="13.89" length="500.00" shape="3000.00,6998.40 3500.00,6998.40"/>
    </edge>
    <edge id="F14G14" from="F14" to="G14" priority="-1">
        <lane id="F14G14_0" index="0" speed="13.89" length="500.00" shape="3000.00,7498.40 3500.00,7498.40"/>
    </edge>
    <edge id="F15G15" from="F15" to="G15" priority="-1">
        <lane id="F15G15_0" index="0" speed="13.89" length="500.00" shape="3000.00,7998.40 3500.00,7998.40"/>
    </edge>
    <edge id="F1G1" from="F1" to="G1" priority="-1">
        <lane id="F1G1_0" index="0" speed="13.89" length="500.00" shape="3000.00,998.40 3500.00,998.40"/>
    </edge>
    <edge id="F2G2" from="F2" to="G2" priority="-1">
        <lane id="F2G2_0" index="0" speed="13.89" length="500.00" shape="3000.00,1498.40 3500.00,1498.40"/>
    </edge>
    <edge id="F3G3" from="F3" to="G3" priority="-1">
        <lane id="F3G3_0" index="0" speed="13.89" length="500.00" shape="3000.00,1998.40 3500.00,1998.40"/>
    </edge>
    <edge id="F4G4" from="F4" to="G4" priority="-1">
        <lane id="F4G4_0" index="0" speed="13.89" length="500.00" shape="3000.00,2498.40 3500.00,2498.40"/>
    </edge>
    <edge id="F5G5" from="F5" to="G5" priority="-1">
        <lane id="F5G5_0" index="0" speed="13.89" length="500.00" shape="3000.00,2998.40 3500.00,2998.40"/>
    </edge>
    <edge id="F6G6" from="F6" to="G6" priority="-1">
        <lane id="F6G6_0" index="0" speed="13.89" length="500.00" shape="3000.00,3498.40 3500.00,3498.40"/>
    </edge>
    <edge id="F7G7" from="F7" to="G7" priority="-1">
        <lane id="F7G7_0" index="0" speed="13.89" length="500.00" shape="3000.00,3998.40 3500.00,3998.40"/>
    </edge>
    <edge id="F8G8" from="F8" to="G8" priority="-1">
        <lane id="F8G8_0" index="0" speed="13.89" length="500.00" shape="3000.00,4498.40 3500.00,4498.40"/>
    </edge>
    <edge id="F9G9" from="F9" to="G9" priority="-1">
        <lane id="F9G9_0" index="0" speed="13.89" length="500.00" shape="3000.00,4998.40 3500.00,4998.40"/>
    </edge>
    <edge id="G0H0" from="G0" to="H0" priority="-1">
        <lane id="G0H0_0" index="0" speed="13.89" length="500.00" shape="3500.00,498.40 4000.00,498.40"/>
    </edge>
    <edge id="G10H10" from="G10" to="H10" priority="-1">
        <lane id="G10H10_0" index="0" speed="13.89" length="500.00" shape="3500.00,5498.40 4000.00,5498.40"/>
    </edge>
    <edge id="G11H11" from="G11" to="H11" priority="-1">
        <lane id="G11H11_0" index="0" speed="13.89" length="500.00" shape="3500.00,5998.40 4000.00,5998.40"/>
    </edge>
    <edge id="G12H12" from="G12" to="H12" priority="-1">
        <lane id="G12H12_0" index="0" speed="13.89" length="500.00" shape="3500.00,6498.40 4000.00,6498.40"/>
    </edge>
    <edge id="G13H13" from="G13" to="H13" priority="-1">
        <lane id="G13H13_0" index="0" speed="13.89" length="500.00" shape="3500.00,6998.40 4000.00,6998.40"/>
    </edge>
    <edge id="G14H14" from="G14" to="H14" priority="-1">
        <lane id="G14H14_0" index="0" speed="13.89" length="500.00" shape="3500.00,7498.40 4000.00,7498.40"/>
    </edge>
    <edge id="G15H15" from="G15" to="H15" priority="-1">
        <lane id="G15H15_0" index="0" speed="13.89" length="500.00" shape="3500.00,7998.40 4000.00,7998.40"/>
    </edge>
    <edge id="G1H1" from="G1" to="H1" priority="-1">
        <lane id="G1H1_0" index="0" speed="13.89" length="500.00" shape="3500.00,998.40 4000.00,998.40"/>
    </edge>
    <edge id="G2H2" from="G2" to="H2" priority="-1">
        <lane id="G2H2_0" index="0" speed="13.89" length="500.00" shape="3500.00,1498.40 4000.00,1498.40"/>
    </edge>
    <edge id="G3H3" from="G3" to="H3" priority="-1">
        <lane id="G3H3_0" index="0" speed="13.89" length="500.00" shape="3500.00,1998.40 4000.00,1998.40"/>
    </edge>
    <edge id="G4H4" from="G4" to="H4" priority="-1">
        <lane id="G4H4_0" index="0" speed="13.89" length="500.00" shape="3500.00,2498.40 4000.00,2498.40"/>
    </edge>
    <edge id="G5H5" from="G5" to="H5" priority="-1">
        <lane id="G5H5_0" index="0" speed="13.89" length="500.00" shape="3500.00,2998.40 4000.00,2998.40"/>
    </edge>
    <edge id="G6H6" from="G6" to="H6" priority="-1">
        <lane id="G6H6_0" index="0" speed="13.89" length="500.00" shape="3500.00,3498.40 4000.00,3498.40"/>
    </edge>
    <edge id="G7H7" from="G7" to="H7" priority="-1">
        <lane id="G7H7_0" index="0" speed="13.89" length="500.00" shape="3500.00,3998.40 4000.00,3998.40"/>
    </edge>
    <edge id="G8H8" from="G8" to="H8" priority="-1">
        <lane id="G8H8_0" index="0" speed="13.89" length="500.00" shape="3500.00,4498.40 4000.00,4498.40"/>
    </edge>
    <edge id="G9H9" from="G9" to="H9" priority="-1">
        <lane id="G9H9_0" index="0" speed="13.89" length="500.00" shape="3500.00,4998.40 4000.00,4998.40"/>
    </edge>
    <edge id="H0I0" from="H0" to="I0" priority="-1">
        <lane id="H0I0_0" index="0" speed="13.89" length="500.00" shape="4000.00,498.40 4500.00,498.40"/>
    </edge>
    <edge id="H10I10" from="H10" to="I10" priority="-1">
        <lane id="H10I10_0" index="0" speed="13.89" length="500.00" shape="4000.00,5498.40 4500.00,5498.40"/>
    </edge>
    <edge id="H11I11" from="H11" to="I11" priority="-1">
        <lane id="H11I11_0" index="0" speed="13.89" length="500.00" shape="4000.00,5998.40 4500.00,5998.40"/>
    </edge>
    <edge id="H12I12" from="H12" to="I12" priority="-1">
        <lane id="H12I12_0" index="0" speed="13.89" length="500.00" shape="4000.00,6498.40 4500.00,6498.40"/>
    </edge>
    <edge id="H13I13" from="H13" to="I13" priority="-1">
        <lane id="H13I13_0" index="0" speed="13.89" length="500.00" shape="4000.00,6998.40 4500.00,6998.40"/>
    </edge>
    <edge id="H14I14" from="H14" to="I14" priority="-1">
        <lane id="H14I14_0" index="0" speed="13.89" length="500.00" shape="4000.00,7498.40 4500.00,7498.40"/>
    </edge>
    <edge id="H15I15" from="H15" to="I15" priority="-1">
        <lane id="H15I15_0" index="0" speed="13.89" length="500.00" shape="4000.00,7998.40 4500.00,7998.40"/>
    </edge>
    <edge id="H1I1" from="H1" to="I1" priority="-1">
        <lane id="H1I1_0" index="0" speed="13.89" length="500.00" shape="4000.00,998.40 4500.00,998.40"/>
    </edge>
    <edge id="H2I2" from="H2" to="I2" priority="-1">
        <lane id="H2I2_0" index="0" speed="13.89" length="500.00" shape="4000.00,1498.40 4500.00,1498.40"/>
    </edge>
    <edge id="H3I3" from="H3" to="I3" priority="-1">
        <lane id="H3I3_0" index="0" speed="13.89" length="500.00" shape="4000.00,1998.40 4500.00,1998.40"/>
    </edge>
    <edge id="H4I4" from="H4" to="I4" priority="-1">
        <lane id="H4I4_0" index="0" speed="13.89" length="500.00" shape="4000.00,2498.40 4500.00,2498.40"/>
    </edge>
    <edge id="H5I5" from="H5" to="I5" priority="-1">
        <lane id="H5I5_0" index="0" speed="13.89" length="500.00" shape="4000.00,2998.40 4500.00,2998.40"/>
    </edge>
    <edge id="H6I6" from="H6" to="I6" priority="-1">
        <lane id="H6I6_0" index="0" speed="13.89" length="500.00" shape="4000.00,3498.40 4500.00,3498.40"/>
    </edge>
    <edge id="H7I7" from="H7" to="I7" priority="-1">
        <lane id="H7I7_0" index="0" speed="13.89" length="500.00" shape="4000.00,3998.40 4500.00,3998.40"/>
    </edge>
    <edge id="H8I8" from="H8" to="I8" priority="-1">
        <lane id="H8I8_0" index="0" speed="13.89" length="500.00" shape="4000.00,4498.40 4500.00,4498.40"/>
    </edge>
    <edge id="H9I9" from="H9" to="I9" priority="-1">
        <lane id="H9I9_0" index="0" speed="13.89" length="500.00" shape="4000.00,4998.40 4500.00,4998.40"/>
    </edge>
    <edge id="I0J0" from="I0" to="J0" priority="-1">
        <lane id="I0J0_0" index="0" speed="13.89" length="500.00" shape="4500.00,498.40 5000.00,498.40"/>
    </edge>
    <edge id="I10J10" from="I10" to="J10" priority="-1">
        <lane id="I10J10_0" index="0" speed="13.89" length="500.00" shape="4500.00,5498.40 5000.00,5498.40"/>
    </edge>
    <edge id="I11J11" from="I11" to="J11" priority="-1">
        <lane id="I11J11_0" index="0" speed="13.89" length="500.00" shape="4500.00,5998.40 5000.00,5998.40"/>
    </edge>
    <edge id="I12J12" from="I12" to="J12" priority="-1">
        <lane id="I12J12_0" index="0" speed="13.89" length="500.00" shape="4500.00,6498.40 5000.00,6498.40"/>
    </edge>
    <edge id="I13J13" from="I13" to="J13" priority="-1">
        <lane id="I13J13_0" index="0" speed="13.89" length="500.00" shape="4500.00,6998.40 5000.00,6998.40"/>
    </edge>
    <edge id="I14J14" from="I14" to="J14" priority="-1">
        <lane id="I14J14_0" index="0" speed="13.89" length="500.00" shape="4500.00,7498.40 5000.00,7498.40"/>
    </edge>
    <edge id="I15J15" from="I15" to="J15" priority="-1">
        <lane id="I15J15_0" index="0" speed="13.89" length="500.00" shape="4500.00,7998.40 5000.00,7998.40"/>
    </edge>
    <edge id="I1J1" from="I1" to="J1" priority="-1">
        <lane id="I1J1_0" index="0" speed="13.89" length="500.00" shape="4500.00,998.40 5000.00,998.40"/>
    </edge>
    <edge id="I2J2" from="I2" to="J2" priority="-1">
        <lane id="I2J2_0" index="0" speed="13.89" length="500.00" shape="4500.00,1498.40 5000.00,1498.40"/>
    </edge>
    <edge id="I3J3" from="I3" to="J3" priority="-1">
        <lane id="I3J3_0" index="0" speed="13.89" length="500.00" shape="4500.00,1998.40 5000.00,1998.40"/>
    </edge>
    <edge id="I4J4" from="I4" to="J4" priority="-1">
        <lane id="I4J4_0" index="0" speed="13.89" length="500.00" shape="4500.00,2498.40 5000.00,2498.40"/>
    </edge>
    <edge id="I5J5" from="I5" to="J5" priority="-1">
        <lane id="I5J5_0" index="0" speed="13.89" length="500.00" shape="4500.00,2998.40 5000.00,2998.40"/>
    </edge>
    <edge id="I6J6" from="I6" to="J6" priority="-1">
        <lane id="I6J6_0" index="0" speed="13.89" length="500.00" shape="4500.00,3498.40 5000.00,3498.40"/>
    </edge>
    <edge id="I7J7" from="I7" to="J7" priority="-1">
        <lane id="I7J7_0" index="0" speed="13.89" length="500.00" shape="4500.00,3998.40 5000.00,3998.40"/>
    </edge>
    <edge id="I8J8" from="I8" to="J8" priority="-1">
        <lane id="I8J8_0" index="0" speed="13.89" length="500.00" shape="4500.00,4498.40 5000.00,4498.40"/>
    </edge>
    <edge id="I9J9" from="I9" to="J9" priority="-1">
        <lane id="I9J9_0" index="0" speed="13.89" length="500.00" shape="4500.00,4998.40 5000.00,4998.40"/>
    </edge>
    <edge id="J0K0" from="J0" to="K0" priority="-1">
        <lane id="J0K0_0" index="0" speed="13.89" length="500.00" shape="5000.00,498.40 5500.00,498.40"/>
    </edge>
    <edge id="J10K10" from="J10" to="K10" priority="-1">
        <lane id="J10K10_0" index="0" speed="13.89" length="500.00" shape="5000.00,5498.40 5500.00,5498.40"/>
    </edge>
    <edge id="J11K11" from="J11" to="K11" priority="-1">
        <lane id="J11K11_0" index="0" speed="13.89" length="500.00" shape="5000.00,5998.40 5500.00,5998.40"/>
    </edge>
    <edge id="J12K12" from="J12" to="K12" priority="-1">
        <lane id="J12K12_0" index="0" speed="13.89" length="500.00" shape="5000.00,6498.40 5500.00,6498.40"/>
    </edge>
    <edge id="J13K13" from="J13" to="K13" priority="-1">
        <lane id="J13K13_0" index="0" speed="13.89" length="500.00" shape="5000.00,6998.40 5500.00,6998.40"/>
    </edge>
    <edge id="J14K14" from="J14" to="K14" priority="-1">
        <lane id="J14K14_0" index="0" speed="13.89" length="500.00" shape="5000.00,7498.40 5500.00,7498.40"/>
    </edge>
    <edge id="J15K15" from="J15" to="K15" priority="-1">
        <lane id="J15K15_0" index="0" speed="13.89" length="500.00" shape="5000.00,7998.40 5500.00,7998.40"/>
    </edge>
    <edge id="J1K1" from="J1" to="K1" priority="-1">
        <lane id="J1K1_0" index="0" speed="13.89" length="500.00" shape="5000.00,998.40 5500.00,998.40"/>
    </edge>
    <edge id="J2K2" from="J2" to="K2" priority="-1">
        <lane id="J2K2_0" index="0" speed="13.89" length="500.00" shape="5000.00,1498.40 5500.00,1498.40"/>
    </edge>
    <edge id="J3K3" from="J3" to="K3" priority="-1">
        <lane id="J3K3_0" index="0" speed="13.89" length="500.00" shape="5000.00,1998.40 5500.00,1998.40"/>
    </edge>
    <edge id="J4K4" from="J4" to="K4" priority="-1">
        <lane id="J4K4_0" index="0" speed="13.89" length="500.00" shape="5000.00,2498.40 5500.00,2498.40"/>
    </edge>
    <edge id="J5K5" from="J5" to="K5" priority="-1">
        <lane id="J5K5_0" index="0" speed="13.89" length="500.00" shape="5000.00,2998.40 5500.00,2998.40"/>
    </edge>
    <edge id="J6K6" from="J6" to="K6" priority="-1">
        <lane id="J6K6_0" index="0" speed="13.89" length="500.00" shape="5000.00,3498.40 5500.00,3498.40"/>
    </edge>
    <edge id="J7K7" from="J7" to="K7" priority="-1">
        <lane id="J7K7_0" index="0" speed="13.89" length="500.00" shape="5000.00,3998.40 5500.00,3998.40"/>
    </edge>
    <edge id="J8K8" from="J8" to="K8" priority="-1">
        <lane id="J8K8_0" index="0" speed="13.89" length="500.00" shape="5000.00,4498.40 5500.00,4498.40"/>
    </edge>
    <edge id="J9K9" from="J9" to="K9" priority="-1">
        <lane id="J9K9_0" index="0" speed="13.89" length="500.00" shape="5000.00,4998.40 5500.00,4998.40"/>
    </edge>
    <edge id="K0L0" from="K0" to="L0" priority="-1">
        <lane id="K0L0_0" index="0" speed="13.89" length="500.00" shape="5500.00,498.40 6000.00,498.40"/>
    </edge>
    <edge id="K10L10" from="K10" to="L10" priority="-1">
        <lane id="K10L10_0" index="0" speed="13.89" length="500.00" shape="5500.00,5498.40 6000.00,5498.40"/>
    </edge>
    <edge id="K11L11" from="K11" to="L11" priority="-1">
        <lane id="K11L11_0" index="0" speed="13.89" length="500.00" shape="5500.00,5998.40 6000.00,5998.40"/>
    </edge>